.MODEL Ideal_pnp2 PNP(
+  BF=200
+  BR=4
+  VTF=2
+  ITF=1
+  CJC=4.5E-12
+  IS=1E-14
+  IKF=0.4
+  TR=250E-9
+  CJE=E-11
+  VAF=100
+  XTF=3
+  RE=0.1
+  RB=20
+  RC=0.1
+  TF=350E-12
+  XTB=1.5
)