.MODEL 1N914 D(
+  Cjo=4p
+  Rs=.568
+  tt=20n
+  M=.4
+  N=1.752
+  Is=2.52n
)