.MODEL 1N914 D(
+  Cjo=50p
+  Rs=0
+  Is=2.52n
+  M=.4
+  N=1.752
+  Bv=60
+  Vj=0.8
)